5S18 - prepared_ligand
                    3D
 Schrodinger Suite 2023-3.
 16 17  0  0  1  0            999 V2000
   -0.9911   15.0142    1.6870 N   0  0  0  0  0  0
   -2.1503   15.0174    0.9840 C   0  0  0  0  0  0
   -4.4272   15.0309    0.4882 C   0  0  0  0  0  0
   -3.6455   14.8629   -0.8290 C   0  0  0  0  0  0
   -3.4156   15.2123    1.5219 N   0  0  0  0  0  0
   -2.2141   14.7970   -0.3814 C   0  0  0  0  0  0
    0.1307   14.7979    0.9531 C   0  0  0  0  0  0
    0.1869   14.5853   -0.3896 N   0  0  0  0  0  0
   -1.0055   14.5935   -1.0492 C   0  0  0  0  0  0
   -5.0264   14.1473    0.7132 H   0  0  0  0  0  0
   -5.0860   15.8977    0.4530 H   0  0  0  0  0  0
   -3.8414   15.7090   -1.4886 H   0  0  0  0  0  0
   -3.9665   13.9522   -1.3361 H   0  0  0  0  0  0
   -3.7529   15.2863    2.4759 H   0  0  0  0  0  0
    1.0604   14.8053    1.4973 H   0  0  0  0  0  0
   -0.9608   14.4337   -2.1143 H   0  0  0  0  0  0
  1  2  1  0  0  0
  1  7  2  0  0  0
  2  5  1  0  0  0
  2  6  2  0  0  0
  3  4  1  0  0  0
  3  5  1  0  0  0
  3 10  1  0  0  0
  3 11  1  0  0  0
  4  6  1  0  0  0
  4 12  1  0  0  0
  4 13  1  0  0  0
  5 14  1  0  0  0
  6  9  1  0  0  0
  7  8  1  0  0  0
  7 15  1  0  0  0
  8  9  2  0  0  0
  9 16  1  0  0  0
M  END
> <i_m_Source_File_Index>
1

> <i_pdb_PDB_CRYST1_z>
8

> <b_m_subgroup_collapsed>
0

> <b_ppw_created_disulfur>
1

> <b_ppw_prepared>
1

> <r_i_Bend_Energy-S-OPLS>
632.88221794893

> <r_i_Dihedral_Energy-S-OPLS>
444.97426637515

> <r_i_El-14_Energy-S-OPLS>
767.920220564956

> <r_i_Electrostatic_Energy-S-OPLS>
-3212.83639884698

> <r_i_LJ-14_Energy-S-OPLS>
1559.76995190529

> <r_i_Max_Derivative-S-OPLS>
2.48331682285837

> <r_i_Potential_Energy-S-OPLS>
-3063.53580473836

> <r_i_RMS_Derivative-S-OPLS>
0.110774350174579

> <r_i_Stretch_Energy-S-OPLS>
133.486511068827

> <r_i_Van_der_Waals_Energy-S-OPLS>
-3497.83228075665

> <r_i_target_temperature>
298

> <r_pdb_PDB_CRYST1_a>
88.242

> <r_pdb_PDB_CRYST1_alpha>
90

> <r_pdb_PDB_CRYST1_b>
88.242

> <r_pdb_PDB_CRYST1_beta>
90

> <r_pdb_PDB_CRYST1_c>
39.036

> <r_pdb_PDB_CRYST1_gamma>
90

> <r_pdb_PDB_EXPDTA_PH>
0.1

> <r_pdb_PDB_EXPDTA_TEMPERATURE>
100

> <r_pdb_PDB_R>
0.175

> <r_pdb_PDB_RESOLUTION>
1.13

> <r_pdb_PDB_Rfree>
0.211

> <r_ppw_preprocess_pH>
7.4

> <s_m_Source_File>
proteinprep_42-out.maegz

> <s_m_Source_Path>
/Users/pwalters/maestro_runs/proteinprep_42

> <s_m_entry_id>
6

> <s_m_entry_name>
5s18.1_ligand

> <s_m_job_name>
proteinprep_42

> <s_m_subgroup_title>
proteinprep_42-out->5S18 - prepared_split_by_structure

> <s_m_subgroupid>
proteinprep_42-out->5S18 - prepared_split_by_structure

> <s_pdb_PDB_CLASSIFICATION>
VIRAL PROTEIN

> <s_pdb_PDB_CRYST1_Space_Group>
P 43

> <s_pdb_PDB_DEPOSITION_DATE>
02-NOV-20

> <s_pdb_PDB_EXPDTA>
X-RAY DIFFRACTION

> <s_pdb_PDB_ID>
5S18

> <s_pdb_PDB_REMARK_350_Biomolecule_1_Transform_1_Chains>
A

> <s_pdb_PDB_REMARK_350_Biomolecule_1_Transform_1_Matrix_1>
1.000000 0.000000 0.000000   0.000000;0.000000 1.000000 0.000000   0.000000;0.000000 0.000000 1.000000   0.000000

> <s_pdb_PDB_REMARK_350_Biomolecule_2_Transform_1_Chains>
B

> <s_pdb_PDB_REMARK_350_Biomolecule_2_Transform_1_Matrix_1>
1.000000 0.000000 0.000000   0.000000;0.000000 1.000000 0.000000   0.000000;0.000000 0.000000 1.000000   0.000000

> <s_pdb_PDB_TITLE>
PANDDA ANALYSIS GROUP DEPOSITION -- CRYSTAL STRUCTURE OF SARS-COV-2 NSP3 MACRODOMAIN IN COMPLEX WITH EN300-321461

> <s_pdb_PDB_format_version>
3.30

> <s_ppw_het_states>
eJzVkD0OwyAMha+CmBHyA1zRXqXK0KGdUJeqU5S7F+MkVqSuHcqAPhv/PN7s4S/u2k/iVIOjKTjB846ZDGGYDLNhMWTDk6DwukTnY101EtKZbLcuwCGR9wqRpGpwSFiLvGkLTKQqgUlVlTDBWpFEK0XinpmHPxRB3Kf7OgJiKktwz3dr2/24tdd9fPEXRuKPjUQsWbxTJ3tUmb+aNy0f5BCMkg==

> <s_ppw_prepared_with_version>
2023-3

$$$$
